Circuit: * C:\Users\bramv\Documents\School\UHasselt\Toegepaste Analoge Elektronica\Labo\Labo 3\lab3.asc

Direct Newton iteration for .op point succeeded.

Date: Tue Dec  5 13:08:50 2023
Total elapsed time: 0.300 seconds.

tnom = 27
temp = 27
method = modified trap
totiter = 23592
traniter = 23545
tranpoints = 7314
accept = 5390
rejected = 1924
matrix size = 78
fillins = 39
solver = Normal
Avg thread counts: 1.1/1.4/1.3/1.1
Matrix Compiler1: 6.39 KB object code size  1.6/1.2/[0.5]
Matrix Compiler2: 7.38 KB object code size  1.0/1.6/[0.6]

