Circuit: * C:\Users\bramv\Documents\School\UHasselt\Toegepaste Analoge Elektronica\Labo\Labo 3\lab_3_RLC.asc

.OP point found by inspection.

Date: Tue Dec  5 18:12:33 2023
Total elapsed time: 0.085 seconds.

tnom = 27
temp = 27
method = trap
totiter = 0
traniter = 0
tranpoints = 0
accept = 0
rejected = 0
matrix size = 3
fillins = 1
solver = Normal
Avg thread counts: 8.0/0.0/0.0/5.1
Matrix Compiler1:       6 opcodes
Matrix Compiler2:      16 opcodes
