Circuit: * C:\Users\bramv\Documents\School\UHasselt\Toegepaste Analoge Elektronica\Labo\Labo 2\Draft1.asc

Direct Newton iteration failed to find .op point.  (Use ".option noopiter" to skip.)
Starting Gmin stepping
Gmin = 10
Gmin = 1.07374
vernier = 0.5
vernier = 0.25
vernier = 0.125
vernier = 0.0625
Gmin = 1.08884
vernier = 0.03125
vernier = 0.015625
Gmin = 1.03122
vernier = 0.0078125
vernier = 0.0104167
vernier = 0.00520833
Gmin = 1.01988
vernier = 0.00260417
vernier = 0.00347222
Gmin = 1.01305
vernier = 0.00173611
vernier = 0.00231481
vernier = 0.00115741
Gmin = 1.01085
vernier = 0.00154321
vernier = 0.000771604
Gmin = 1.00871
vernier = 0.00102881
vernier = 0.000514403
Gmin = 1.00715
vernier = 0.00068587
vernier = 0.000514403
Gmin = 1.0059
vernier = 0.00068587
vernier = 0.000514402
Gmin = 0
Gmin stepping failed

Starting source stepping with srcstepmethod=0
Source Step = 3.0303%
Source Step = 33.3333%
Source Step = 63.6364%
Source Step = 93.9394%
Source stepping succeeded in finding the operating point.


Date: Tue Dec  5 13:07:32 2023
Total elapsed time: 0.265 seconds.

tnom = 27
temp = 27
method = modified trap
totiter = 17227
traniter = 10910
tranpoints = 4234
accept = 3162
rejected = 1072
matrix size = 13
fillins = 2
solver = Normal
Avg thread counts: 1.3/1.6/1.6/1.3
Matrix Compiler1: 550 bytes object code size  0.3/0.2/[0.1]
Matrix Compiler2: 1.16 KB object code size  0.1/0.2/[0.1]

