Circuit: * C:\Users\bramv\Documents\School\UHasselt\Toegepaste Analoge Elektronica\Labo\Labo 2\labo_2_tests.asc

Limiting rise time of source v1 to 0.0025
Limiting fall time of source v1 to 0.0025
Direct Newton iteration for .op point succeeded.
Ignoring empty pin current: Ix(u1:1)
Ignoring empty pin current: Ix(u1:2)
Ignoring empty pin current: Ix(u1:1)
Ignoring empty pin current: Ix(u1:2)

Date: Thu Nov 30 11:46:11 2023
Total elapsed time: 0.360 seconds.

tnom = 27
temp = 27
method = modified trap
totiter = 4069
traniter = 4066
tranpoints = 2034
accept = 1851
rejected = 183
matrix size = 10
fillins = 2
solver = Normal
Avg thread counts: 1.7/2.3/2.3/1.7
Matrix Compiler1: 372 bytes object code size  1.7/1.0/[0.8]
Matrix Compiler2: 632 bytes object code size  0.9/1.3/[0.6]

