Circuit: * C:\Users\bramv\Documents\School\UHasselt\Toegepaste Analoge Elektronica\Labo\Labo 4\lab 4.asc

Direct Newton iteration failed to find .op point.  (Use ".option noopiter" to skip.)
Starting Gmin stepping
Increasing initial diagonal Gmin to 100
Gmin = 100
Gmin = 10.7374
Gmin = 1.15292
Gmin = 0.123794
Gmin = 0.0132923
Gmin = 0.00142725
vernier = 0.5
vernier = 0.25
vernier = 0.125
vernier = 0.0625
Gmin = 0.00101493
vernier = 0.03125
vernier = 0.015625
vernier = 0.0078125
Gmin = 0.000999238
vernier = 0.00390625
vernier = 0.00195312
vernier = 0.000976562
vernier = 0.000488281
Gmin = 0.000999969
Gmin = 0
Gmin stepping failed

Starting source stepping with srcstepmethod=0
Source Step = 3.0303%
Source Step = 33.3333%
Source Step = 51.5625%
Source Step = 51.6306%
Source Step = 51.6602%
Source Step = 51.6897%
Source Step = 51.7193%
Source Step = 51.7489%
vernier = 0.00146484
Source Step = 51.7844%
Source Step = 51.8288%
Source Step = 51.8732%
Source Step = 51.9176%
Source Step = 51.962%
vernier = 0.00219727
Source Step = 52.0131%
Source Step = 52.0796%
Source Step = 52.1462%
Source Step = 52.2128%
Source Step = 52.2794%
vernier = 0.0032959
Source Step = 52.3526%
Source Step = 52.4525%
Source Step = 52.5524%
Source Step = 52.6523%
Source Step = 52.7521%
vernier = 0.00494385
Source Step = 52.857%
Source Step = 53.0068%
Source Step = 53.1566%
Source Step = 53.3064%
Source Step = 53.4563%
Source Step = 53.6061%
vernier = 0.00741577
Source Step = 53.8308%
Source Step = 54.0555%
Source Step = 54.2802%
Source Step = 54.5049%
Source Step = 54.7297%
vernier = 0.0111237
Source Step = 55.0555%
Source Step = 55.3926%
Source Step = 55.7297%
Source Step = 56.0668%
Source Step = 56.4038%
vernier = 0.0166855
Source Step = 56.8757%
Source Step = 57.3814%
Source Step = 57.887%
Source Step = 58.3926%
Source Step = 58.8982%
vernier = 0.0250282
Source Step = 59.5808%
Source Step = 60.3393%
Source Step = 61.0977%
Source Step = 61.8561%
Source Step = 62.6145%
vernier = 0.0375423
Source Step = 63.6005%
Source Step = 64.7382%
Source Step = 65.8758%
Source Step = 67.0134%
Source Step = 68.1511%
vernier = 0.0563135
Source Step = 69.5732%
Source Step = 71.2796%
Source Step = 72.9861%
Source Step = 74.6926%
Source Step = 76.399%
vernier = 0.0844703
Source Step = 78.4468%
Source Step = 81.0065%
Source Step = 83.5662%
Source Step = 86.1259%
Source Step = 88.6856%
vernier = 0.126705
Source Step = 91.6293%
Source Step = 95.4688%
Source Step = 99.3084%
Source stepping succeeded in finding the operating point.


Date: Tue Dec 19 16:38:01 2023
Total elapsed time: 0.453 seconds.

tnom = 27
temp = 27
method = trap
totiter = 4842
traniter = 0
tranpoints = 0
accept = 0
rejected = 0
matrix size = 150
fillins = 173
solver = Normal
Avg thread counts: 1.6/0.0/2.4/1.5
Matrix Compiler1:    1026 opcodes
Matrix Compiler2: 16.27 KB object code size  2.2/2.8/[1.1]

